Circuit: * C:\Users\joel.santos\OneDrive - Brompton Bicycle Ltd\Desktop\Snowflake\support\LTSpice\Astable Multivibrator.asc

Instance "m:u2:14": Length shorter than recommended for a level 1 MOSFET.
Instance "m:u2:12": Length shorter than recommended for a level 1 MOSFET.
Direct Newton iteration failed to find .op point.  (Use ".option noopiter" to skip.)
Starting Gmin stepping
Increasing initial diagonal Gmin to 100
Increasing initial diagonal Gmin to 1000
Increasing initial diagonal Gmin to 10000
Increasing initial diagonal Gmin to 100000
Increasing initial diagonal Gmin to 1e+006
Initial Gmin=1e+006 failed
Gmin stepping failed

Starting source stepping with srcstepmethod=0
Source Step = 3.0303%
Source Step = 33.3333%
Source Step = 63.6364%
Source Step = 66.6785%
Starting source stepping with srcstepmethod=1
Source Step = 3.0303%
vernier = 0.25
Source stepping failed

Pseudo Transient failed in finding the operating point at 5 µs.
Trouble finding operating point....skipping operating point for Transient analysis.
Changing Tseed to 1e-007
Changing Tseed to 1e-009
Changing Tseed to 1e-006
Changing Tseed to 1e-010
Changing Tseed to 1e-005
Changing Tseed to 1e-011
Changing Tseed to 0.0001
Changing Tseed to 1e-012
Changing Tseed to 0.001
Changing Tseed to 1e-013
Changing Tseed to 0.01
Changing Tseed to 1e-014
to 1.25e-015
Heightened Def Con from 0.291196 to 0.291196

Date: Mon Oct 03 14:26:52 2022
Total elapsed time: 12233.253 seconds.

tnom = 27
temp = 27
method = modified trap
totiter = 916249540
traniter = 916232468
tranpoints = 405375863
accept = 271353106
rejected = 134023114
matrix size = 47
fillins = 54
solver = Normal
Thread vector: 5.3/3.4[2] 0.8/0.9[1] 3.4/1.5[2] 0.2/0.7[1]  2592/500
Matrix Compiler1: 3.96 KB object code size  0.7/0.4/[0.2]
Matrix Compiler2: 4.41 KB object code size  0.3/0.5/[0.3]

