Circuit: * C:\Users\joel.santos\OneDrive - Brompton Bicycle Ltd\Desktop\Jupyter Test\LTSpice\LED And Battery Sims - Two Cells.asc

.dc sweep increment has wrong sign -- fixing...

Date: Thu Sep 29 13:21:42 2022
Total elapsed time: 0.039 seconds.

tnom = 27
temp = 27
method = trap
totiter = 86
traniter = 0
tranpoints = 0
accept = 0
rejected = 0
matrix size = 6
fillins = 0
solver = Normal
Matrix Compiler1: 182 bytes object code size
Matrix Compiler2: 394 bytes object code size
